
Note: Compatibility modes selected: hs a


Circuit: * sky130a lelo_ex 1:4 nmos current mirror

option SCALE: Scale is set to 1e-06 for instance and model parameters
Doing analysis at TEMP = 27.000000 and TNOM = 27.000000

Using SPARSE 1.3 as Direct Linear Solver
Operating point simulation skipped by 'uic',
  now using transient initial conditions.
 Reference value :  1.00000e-09
No. of Data Rows : 218
ibn                 =  2.42619e-05
ibn = 2.426188e-05
vgs_m1              =  7.64598e-01
vgs_m1 = 7.645982e-01
binary raw file "/Users/Shared/rlx-eda/crates/spike-lelo-ex/docs/sky130a_mc/lelo_ex_mc_003.raw"
Note: Simulation executed from .control section 
